LTspice 24.1.7 for Windows
Circuit: C:\Users\lilia\Documents\GitHub\Satysfactory-Boombox\boombox satis\Carte Gestion Alim\Simu\Draft1.net
Start Time: Thu May  8 22:58:49 2025
solver = Normal
Maximum thread count: 16
tnom = 27
temp = 27
method = trap
Direct Newton iteration for .op point succeeded.
Total elapsed time: 0.064 seconds.

Files loaded:
C:\Users\lilia\Documents\GitHub\Satysfactory-Boombox\boombox satis\Carte Gestion Alim\Simu\Draft1.net
C:\Users\lilia\AppData\Local\LTspice\lib\cmp\standard.dio

