LTspice 24.1.7 for Windows
Circuit: C:\Users\lilia\Documents\GitHub\Satysfactory-Boombox\boombox satis\Carte Gestion Alim\Simu\Piste_Soft_Start.net
Start Time: Sat May  3 18:01:10 2025
solver = Normal
Maximum thread count: 16
tnom = 27
temp = 27
method = trap
.OP point found by inspection.
Total elapsed time: 0.099 seconds.

Files loaded:
C:\Users\lilia\Documents\GitHub\Satysfactory-Boombox\boombox satis\Carte Gestion Alim\Simu\Piste_Soft_Start.net
C:\Users\lilia\AppData\Local\LTspice\lib\cmp\standard.mos

