LTspice 24.0.12 for Windows
Circuit: * C:\Users\Lilian\Documents\GitHub\Satysfactory-Boombox\boombox satis\Carte Gestion Alim\Simu\Piste_Soft_Start.asc
Start Time: Sun May  4 17:12:56 2025
solver = Normal
Maximum thread count: 12
tnom = 27
temp = 27
method = modified trap
.OP point found by inspection.
Total elapsed time: 0.047 seconds.

